New LoadShape.loadshape_multload interval=0 npts=24 csvfile=[Loadshape_multload.csv]
!interval=0 for OpenDSS to perform interpolation



New Loadshape.storageshape  npts=24  interval=1 mult=[0 0 -1 -1 -1 -1 -1 0 0 0 0 0 0 0 0 0 0.8 0.9 0.94 1 0.94 0 0 0]
